[General]
network = Network
sim-time-limit = 5s
*.numCars = 100
*.map.mapFile = xmldoc("map.osm")
